EPRI_Ckt7_DER_Project/02_Base_Allocated/ckt7_Curr_Elem.Txt

CIRCUIT ELEMENT CURRENTS

(Currents into element from indicated bus)

Power Delivery Elements

  Bus Phase    Magnitude, A     Angle      (Real)   +j  (Imag)

ELEMENT = "Vsource.source"
SOURCEBUS     1           415.44 /_  153.4 =    -371.45 +j    186.06
SOURCEBUS     2           415.07 /_   33.4 =     346.44 +j    228.61
SOURCEBUS     3           415.43 /_  -86.5 =     25.003 +j   -414.67
------------
SOURCEBUS     0           415.44 /_  -26.6 =     371.45 +j   -186.06
SOURCEBUS     0           415.07 /_ -146.6 =    -346.44 +j   -228.61
SOURCEBUS     0           415.43 /_   93.5 =    -25.003 +j    414.67

ELEMENT = "Transformer.sub1"
SOURCEBUS     1           138.48 /_  -26.6 =     123.82 +j   -62.022
SOURCEBUS     2           138.36 /_ -146.6 =    -115.48 +j   -76.203
SOURCEBUS     3           138.48 /_   93.5 =    -8.3342 +j    138.22
SOURCEBUS     0                0 /_    0.0 =          0 +j         0
------------
CKT7     1             1279 /_  123.4 =     -703.9 +j    1067.9
CKT7     2           1276.2 /_    3.5 =     1273.8 +j    77.212
CKT7     3           1274.9 /_ -116.6 =    -570.78 +j     -1140
CKT7     0           5.1854 /_  -80.5 =    0.85873 +j   -5.1138

ELEMENT = "Transformer.sub2"
SOURCEBUS     1           138.48 /_  -26.6 =     123.82 +j   -62.022
SOURCEBUS     2           138.36 /_ -146.6 =    -115.48 +j   -76.203
SOURCEBUS     3           138.48 /_   93.5 =    -8.3342 +j    138.22
SOURCEBUS     0                0 /_    0.0 =          0 +j         0
------------
CKT7     1             1279 /_  123.4 =     -703.9 +j    1067.9
CKT7     2           1276.2 /_    3.5 =     1273.8 +j    77.212
CKT7     3           1274.9 /_ -116.6 =    -570.78 +j     -1140
CKT7     0           5.1854 /_  -80.5 =    0.85873 +j   -5.1138

ELEMENT = "Transformer.sub3"
SOURCEBUS     1           138.48 /_  -26.6 =     123.82 +j   -62.022
SOURCEBUS     2           138.36 /_ -146.6 =    -115.48 +j   -76.203
SOURCEBUS     3           138.48 /_   93.5 =    -8.3342 +j    138.22
SOURCEBUS     0                0 /_    0.0 =          0 +j         0
------------
CKT7     1             1279 /_  123.4 =     -703.9 +j    1067.9
CKT7     2           1276.2 /_    3.5 =     1273.8 +j    77.212
CKT7     3           1274.9 /_ -116.6 =    -570.78 +j     -1140
CKT7     0           5.1854 /_  -80.5 =    0.85873 +j   -5.1138

ELEMENT = "Line.326"
CKT7     1                0 /_    0.0 =          0 +j         0
CKT7     2                0 /_    0.0 =          0 +j         0
CKT7     3                0 /_    0.0 =          0 +j         0
------------
318405     1        7.8825E-8 /_   50.7 =  4.9955E-8 +j 6.0975E-8
318405     2        7.8836E-8 /_   -9.3 =  7.7795E-8 +j -1.2767E-8
318405     3                0 /_    0.0 =          0 +j         0

ELEMENT = "Line.333"
CKT7     1           273.27 /_  -44.6 =     194.61 +j   -191.85
CKT7     2           243.35 /_ -161.9 =    -231.31 +j   -75.606
CKT7     3           271.15 /_   75.6 =     67.661 +j    262.58
------------
318412     1           273.27 /_  135.4 =    -194.61 +j    191.85
318412     2           243.35 /_   18.1 =     231.31 +j    75.606
318412     3           271.15 /_ -104.4 =    -67.661 +j   -262.58

ELEMENT = "Line.335"
CKT7     1                0 /_    0.0 =          0 +j         0
CKT7     2                0 /_    0.0 =          0 +j         0
CKT7     3                0 /_    0.0 =          0 +j         0
------------
318414     1        7.8825E-8 /_   50.7 =  4.9955E-8 +j 6.0975E-8
318414     2        7.8836E-8 /_   -9.3 =  7.7795E-8 +j -1.2767E-8
318414     3                0 /_    0.0 =          0 +j         0

ELEMENT = "Line.150394"
157345     1           2.5632 /_  115.1 =    -1.0867 +j    2.3214
157345     2           2.5638 /_   -4.9 =     2.5544 +j  -0.22022
157345     3            2.563 /_ -124.9 =    -1.4676 +j   -2.1012
------------
157346     1           2.5632 /_  -64.9 =     1.0867 +j   -2.3214
157346     2           2.5638 /_  175.1 =    -2.5544 +j   0.22022
157346     3            2.563 /_   55.1 =     1.4676 +j    2.1012

ELEMENT = "Line.157109"
165442     1           269.72 /_  -44.3 =        193 +j   -188.41
165442     2            239.8 /_ -161.5 =    -227.46 +j   -75.934
165442     3           267.49 /_   75.8 =     65.423 +j    259.36
------------
298160     1           269.72 /_  135.7 =       -193 +j    188.41
298160     2            239.8 /_   18.5 =     227.46 +j    75.934
298160     3           267.49 /_ -104.2 =    -65.423 +j   -259.36

ELEMENT = "Line.157115"
165448     1           269.72 /_  -44.3 =        193 +j   -188.41
165448     2           238.03 /_ -161.4 =    -225.54 +j   -76.089
165448     3           267.49 /_   75.8 =     65.423 +j    259.36
------------
275354     1           269.72 /_  135.7 =       -193 +j    188.41
275354     2           238.03 /_   18.6 =     225.54 +j    76.089
275354     3           267.49 /_ -104.2 =    -65.423 +j   -259.36

ELEMENT = "Line.157116"
165449     1         0.046242 /_ -110.2 =  -0.015938 +j -0.043408
165449     2        7.5034E-8 /_  -69.9 =  2.5806E-8 +j -7.0457E-8
165449     3        7.4832E-8 /_  170.1 =  -7.3713E-8 +j 1.2893E-8
------------
165450     1         0.046242 /_   69.8 =   0.015938 +j  0.043408
165450     2       9.7956E-12 /_  -21.8 =  9.0949E-12 +j -3.638E-12
165450     3        1.627E-11 /_   63.4 =  7.276E-12 +j 1.4552E-11

ELEMENT = "Line.157118"
165453     1           21.233 /_  -65.4 =     8.8392 +j   -19.305
165453     2           21.393 /_  174.6 =    -21.299 +j    2.0115
165453     3           21.479 /_   54.6 =     12.444 +j    17.508
------------
165454     1           21.233 /_  114.6 =    -8.8392 +j    19.305
165454     2           21.393 /_   -5.4 =     21.299 +j   -2.0115
165454     3           21.479 /_ -125.4 =    -12.444 +j   -17.508

ELEMENT = "Line.157119"
165449     1            269.7 /_  -44.3 =     193.02 +j   -188.37
165449     2           236.84 /_ -161.2 =    -224.25 +j   -76.204
165449     3           267.49 /_   75.8 =     65.423 +j    259.36
------------
165451     1            269.7 /_  135.7 =    -193.02 +j    188.37
165451     2           236.84 /_   18.8 =     224.25 +j    76.204
165451     3           267.49 /_ -104.2 =    -65.423 +j   -259.36

ELEMENT = "Line.157120"
165454     1           20.003 /_  -65.4 =     8.3287 +j   -18.186
165454     2           20.091 /_  174.6 =    -20.001 +j    1.8913
165454     3           20.127 /_   54.6 =     11.665 +j    16.402
------------
238402     1           20.003 /_  114.6 =    -8.3287 +j    18.186
238402     2           20.091 /_   -5.4 =     20.001 +j   -1.8913
238402     3           20.127 /_ -125.4 =    -11.665 +j   -16.402

ELEMENT = "Line.157121"
165455     1           5.1157 /_  114.8 =    -2.1475 +j    4.6432
165455     2           5.1203 /_   -5.2 =     5.0991 +j  -0.46553
165455     3           5.1151 /_ -125.2 =    -2.9516 +j   -4.1776
------------
165456     1           5.1157 /_  -65.2 =     2.1475 +j   -4.6432
165456     2           5.1203 /_  174.8 =    -5.0991 +j   0.46553
165456     3           5.1151 /_   54.8 =     2.9516 +j    4.1776

ELEMENT = "Line.157122"
165452     1           13.657 /_  -65.5 =     5.6705 +j   -12.424
165452     2           13.668 /_  174.5 =    -13.605 +j    1.3059
165452     3           13.659 /_   54.5 =     7.9347 +j    11.118
------------
283563     1           13.657 /_  114.5 =    -5.6705 +j    12.424
283563     2           13.668 /_   -5.5 =     13.605 +j   -1.3059
283563     3           13.659 /_ -125.5 =    -7.9347 +j   -11.118

ELEMENT = "Line.157123"
165455     1           5.1157 /_  -65.2 =     2.1475 +j   -4.6432
165455     2           5.1203 /_  174.8 =    -5.0991 +j   0.46553
165455     3           5.1151 /_   54.8 =     2.9516 +j    4.1776
------------
165457     1           5.1157 /_  114.8 =    -2.1475 +j    4.6432
165457     2           5.1203 /_   -5.2 =     5.0991 +j  -0.46553
165457     3           5.1151 /_ -125.2 =    -2.9516 +j   -4.1776

ELEMENT = "Line.157124"
165458     1           16.245 /_  114.7 =     -6.777 +j    14.764
165458     2            16.26 /_   -5.4 =     16.188 +j   -1.5258
165458     3           16.243 /_ -125.4 =    -9.4114 +j   -13.238
------------
165459     1           16.245 /_  -65.3 =      6.777 +j   -14.764
165459     2            16.26 /_  174.6 =    -16.188 +j    1.5258
165459     3           16.243 /_   54.6 =     9.4114 +j    13.238

ELEMENT = "Line.157126"
165458     1           16.245 /_  -65.3 =      6.777 +j   -14.764
165458     2            16.26 /_  174.6 =    -16.188 +j    1.5258
165458     3           16.243 /_   54.6 =     9.4114 +j    13.238
------------
165460     1           16.245 /_  114.7 =     -6.777 +j    14.764
165460     2            16.26 /_   -5.4 =     16.188 +j   -1.5258
165460     3           16.243 /_ -125.4 =    -9.4114 +j   -13.238

ELEMENT = "Line.157127"
165460     1           13.685 /_  -65.4 =     5.7073 +j   -12.438
165460     2           13.697 /_  174.6 =    -13.637 +j    1.2878
165460     3           13.682 /_   54.6 =     7.9294 +j     11.15
------------
165461     1           13.685 /_  114.6 =    -5.7073 +j    12.438
165461     2           13.697 /_   -5.4 =     13.637 +j   -1.2878
165461     3           13.682 /_ -125.4 =    -7.9294 +j    -11.15

ELEMENT = "Line.157128"
165461     1           13.643 /_  -65.1 =     5.7394 +j   -12.377
165461     2           13.656 /_  174.8 =      -13.6 +j    1.2299
165461     3            13.64 /_   54.8 =      7.861 +j    11.147
------------
165463     1           13.643 /_  114.9 =    -5.7394 +j    12.377
165463     2           13.656 /_   -5.2 =       13.6 +j   -1.2299
165463     3            13.64 /_ -125.2 =     -7.861 +j   -11.147

ELEMENT = "Line.157129"
165463     1           8.5243 /_  -65.0 =      3.608 +j   -7.7231
165463     2            8.533 /_  175.0 =    -8.5003 +j   0.74643
165463     3            8.521 /_   55.0 =     4.8922 +j    6.9767
------------
165462     1           8.5243 /_  115.0 =     -3.608 +j    7.7231
165462     2            8.533 /_   -5.0 =     8.5003 +j  -0.74643
165462     3            8.521 /_ -125.0 =    -4.8922 +j   -6.9767

ELEMENT = "Line.157130"
165465     1           5.1189 /_  114.6 =    -2.1314 +j    4.6541
165465     2            5.123 /_   -5.4 =     5.1002 +j  -0.48342
165465     3           5.1194 /_ -125.4 =    -2.9688 +j   -4.1707
------------
165463     1           5.1189 /_  -65.4 =     2.1314 +j   -4.6541
165463     2            5.123 /_  174.6 =    -5.1002 +j   0.48342
165463     3           5.1194 /_   54.6 =     2.9688 +j    4.1707

ELEMENT = "Line.157131"
165461     1         0.068315 /_ -118.0 =  -0.032072 +j -0.060318
165461     2         0.068372 /_  122.0 =  -0.036261 +j  0.057964
165461     3         0.068374 /_    2.0 =   0.068334 +j 0.0023536
------------
165466     1         0.068315 /_   62.0 =   0.032072 +j  0.060318
165466     2         0.068372 /_  -58.0 =   0.036261 +j -0.057964
165466     3         0.068374 /_ -178.0 =  -0.068334 +j -0.0023536

ELEMENT = "Line.157132"
165451     1           235.12 /_  -41.0 =      177.4 +j    -154.3
165451     2           199.64 /_ -156.4 =    -182.88 +j   -80.071
165451     3           232.73 /_   79.2 =     43.568 +j    228.62
------------
165467     1           235.12 /_  139.0 =     -177.4 +j     154.3
165467     2           199.64 /_   23.6 =     182.88 +j    80.071
165467     3           232.73 /_ -100.8 =    -43.568 +j   -228.62

ELEMENT = "Line.157133"
165467     1              234 /_  -40.9 =     176.89 +j   -153.18
165467     2           199.64 /_ -156.4 =    -182.88 +j   -80.071
165467     3           232.73 /_   79.2 =     43.568 +j    228.62
------------
165468     1              234 /_  139.1 =    -176.89 +j    153.18
165468     2           199.64 /_   23.6 =     182.88 +j    80.071
165468     3           232.73 /_ -100.8 =    -43.568 +j   -228.62

ELEMENT = "Line.157136"
165475     1           12.771 /_  -64.6 =     5.4708 +j    -11.54
165475     2           12.787 /_  175.3 =    -12.744 +j    1.0535
165475     3           12.762 /_   55.3 =      7.273 +j    10.486
------------
165476     1           12.771 /_  115.4 =    -5.4708 +j     11.54
165476     2           12.787 /_   -4.7 =     12.744 +j   -1.0535
165476     3           12.762 /_ -124.7 =     -7.273 +j   -10.486

ELEMENT = "Line.157137"
165477     1           12.771 /_  115.4 =    -5.4708 +j     11.54
165477     2           12.787 /_   -4.7 =     12.744 +j   -1.0535
165477     3           12.762 /_ -124.7 =     -7.273 +j   -10.486
------------
165476     1           12.771 /_  -64.6 =     5.4708 +j    -11.54
165476     2           12.787 /_  175.3 =    -12.744 +j    1.0535
165476     3           12.762 /_   55.3 =      7.273 +j    10.486

ELEMENT = "Line.157138"
165475     1           12.771 /_  115.4 =    -5.4708 +j     11.54
165475     2           12.787 /_   -4.7 =     12.744 +j   -1.0535
165475     3           12.762 /_ -124.7 =     -7.273 +j   -10.486
------------
273626     1           12.771 /_  -64.6 =     5.4708 +j    -11.54
273626     2           12.787 /_  175.3 =    -12.744 +j    1.0535
273626     3           12.762 /_   55.3 =      7.273 +j    10.486

ELEMENT = "Line.157142"
165468     1              234 /_  -40.9 =     176.89 +j   -153.18
165468     2           199.63 /_ -156.3 =    -182.86 +j   -80.088
165468     3           232.73 /_   79.2 =     43.568 +j    228.62
------------
165469     1              234 /_  139.1 =    -176.89 +j    153.18
165469     2           199.63 /_   23.7 =     182.86 +j    80.088
165469     3           232.73 /_ -100.8 =    -43.568 +j   -228.62

ELEMENT = "Line.157143"
165469     1           218.96 /_  -39.1 =     169.84 +j    -138.2
165469     2           184.72 /_ -153.8 =    -165.75 +j   -81.547
165469     3            217.6 /_   81.0 =     34.009 +j    214.93
------------
165480     1           218.96 /_  140.9 =    -169.84 +j     138.2
165480     2           184.72 /_   26.2 =     165.75 +j    81.547
165480     3            217.6 /_  -99.0 =    -34.009 +j   -214.93

ELEMENT = "Line.157144"
165478     1           214.38 /_  -38.5 =     167.71 +j   -133.54
165478     2           180.37 /_ -152.9 =    -160.62 +j    -82.07
165478     3           213.03 /_   81.6 =     31.036 +j    210.76
------------
165479     1           214.38 /_  141.5 =    -167.71 +j    133.54
165479     2           180.37 /_   27.1 =     160.62 +j     82.07
165479     3           213.03 /_  -98.4 =    -31.036 +j   -210.76

ELEMENT = "Line.157145"
165480     1           218.96 /_  -39.1 =     169.84 +j    -138.2
165480     2           184.71 /_ -153.8 =    -165.72 +j   -81.583
165480     3            217.6 /_   81.0 =     34.009 +j    214.93
------------
165478     1           218.96 /_  140.9 =    -169.84 +j     138.2
165478     2           184.71 /_   26.2 =     165.72 +j    81.583
165478     3            217.6 /_  -99.0 =    -34.009 +j   -214.93

ELEMENT = "Line.157147"
165484     1           2.5611 /_  114.5 =    -1.0614 +j    2.3308
165484     2           2.5634 /_   -5.5 =     2.5514 +j  -0.24705
165484     3           2.5617 /_ -125.6 =    -1.4901 +j   -2.0837
------------
165483     1           2.5611 /_  -65.5 =     1.0614 +j   -2.3308
165483     2           2.5634 /_  174.5 =    -2.5514 +j   0.24705
165483     3           2.5617 /_   54.4 =     1.4901 +j    2.0837

ELEMENT = "Line.157148"
165483     1           5.1208 /_  114.6 =    -2.1291 +j    4.6573
165483     2           5.1256 /_   -5.5 =     5.1024 +j  -0.48708
165483     3           5.1217 /_ -125.5 =    -2.9734 +j   -4.1702
------------
261839     1           5.1208 /_  -65.4 =     2.1291 +j   -4.6573
261839     2           5.1256 /_  174.5 =    -5.1024 +j   0.48708
261839     3           5.1217 /_   54.5 =     2.9734 +j    4.1702

ELEMENT = "Line.157149"
261838     1           5.1208 /_  114.6 =    -2.1291 +j    4.6573
261838     2           5.1256 /_   -5.5 =     5.1024 +j  -0.48708
261838     3           5.1217 /_ -125.5 =    -2.9734 +j   -4.1702
------------
165478     1           5.1208 /_  -65.4 =     2.1291 +j   -4.6573
165478     2           5.1256 /_  174.5 =    -5.1024 +j   0.48708
165478     3           5.1217 /_   54.5 =     2.9734 +j    4.1702

ELEMENT = "Line.157150"
165479     1           2.0627 /_  -65.3 =    0.86183 +j    -1.874
165479     2          0.26476 /_  173.6 =   -0.26312 +j  0.029429
165479     3          0.27461 /_   53.8 =    0.16204 +j   0.22171
------------
165486     1           2.0627 /_  114.7 =   -0.86183 +j     1.874
165486     2          0.26476 /_   -6.4 =    0.26312 +j -0.029429
165486     3          0.27461 /_ -126.2 =   -0.16204 +j  -0.22171

ELEMENT = "Line.157151"
165486     1           1.8126 /_  -65.1 =    0.76275 +j   -1.6443
165486     2        2.6951E-8 /_  -70.1 =  9.1914E-9 +j -2.5335E-8
165486     3        2.6753E-8 /_  169.9 =  -2.6339E-8 +j 4.6857E-9
------------
165485     1           1.8126 /_  114.9 =   -0.76275 +j    1.6443
165485     2       5.4721E-11 /_  164.6 =  -5.2751E-11 +j 1.4552E-11
165485     3       2.9104E-11 /_  180.0 =  -2.9104E-11 +j         0

ELEMENT = "Line.157152"
165479     1           212.54 /_  -38.3 =     166.84 +j   -131.67
165479     2           180.15 /_ -152.9 =    -160.35 +j   -82.099
165479     3           212.79 /_   81.7 =     30.873 +j    210.54
------------
165487     1           212.54 /_  141.7 =    -166.84 +j    131.67
165487     2           180.15 /_   27.1 =     160.35 +j    82.099
165487     3           212.79 /_  -98.3 =    -30.873 +j   -210.54

ELEMENT = "Line.157153"
165488     1            12.23 /_  114.6 =    -5.0861 +j    11.123
------------
165489     1            12.23 /_  -65.4 =     5.0861 +j   -11.123

ELEMENT = "Line.157155"
165488     1            12.23 /_  -65.4 =     5.0861 +j   -11.123
------------
165491     1            12.23 /_  114.6 =    -5.0861 +j    11.123

ELEMENT = "Line.157156"
165491     1           7.3325 /_  -65.3 =     3.0619 +j   -6.6626
------------
165490     1           7.3325 /_  114.7 =    -3.0619 +j    6.6626

ELEMENT = "Line.157157"
165490     1           4.8883 /_  -65.3 =     2.0414 +j   -4.4416
------------
165494     1           4.8883 /_  114.7 =    -2.0414 +j    4.4416

ELEMENT = "Line.157158"
165490     1           2.4442 /_  -65.3 =     1.0205 +j    -2.221
------------
165492     1           2.4442 /_  114.7 =    -1.0205 +j     2.221

ELEMENT = "Line.157159"
165494     1           2.4441 /_  -65.3 =      1.021 +j   -2.2206
------------
165493     1           2.4441 /_  114.7 =     -1.021 +j    2.2206

ELEMENT = "Line.157160"
165487     1           201.74 /_  -36.7 =     161.76 +j   -120.55
165487     2           180.15 /_ -152.9 =    -160.35 +j   -82.099
165487     3           212.79 /_   81.7 =     30.873 +j    210.54
------------
283952     1           201.74 /_  143.3 =    -161.76 +j    120.55
283952     2           180.15 /_   27.1 =     160.35 +j    82.099
283952     3           212.79 /_  -98.3 =    -30.873 +j   -210.54

ELEMENT = "Line.157163"
165500     1           2.5594 /_  -65.5 =     1.0628 +j   -2.3283
165500     2           2.5623 /_  174.5 =    -2.5505 +j   0.24541
165500     3           2.5596 /_   54.5 =     1.4877 +j    2.0829
------------
165501     1           2.5594 /_  114.5 =    -1.0628 +j    2.3283
165501     2           2.5623 /_   -5.5 =     2.5505 +j  -0.24541
165501     3           2.5596 /_ -125.5 =    -1.4877 +j   -2.0829

ELEMENT = "Line.157165"
165495     1           2.5594 /_  -65.5 =     1.0628 +j   -2.3283
165495     2           2.5623 /_  174.5 =    -2.5505 +j   0.24541
165495     3           2.5596 /_   54.5 =     1.4877 +j    2.0829
------------
165500     1           2.5594 /_  114.5 =    -1.0628 +j    2.3283
165500     2           2.5623 /_   -5.5 =     2.5505 +j  -0.24541
165500     3           2.5596 /_ -125.5 =    -1.4877 +j   -2.0829

ELEMENT = "Line.157167"
165501     1           2.5594 /_  -65.5 =     1.0628 +j   -2.3283
165501     2           2.5623 /_  174.5 =    -2.5505 +j   0.24541
165501     3           2.5596 /_   54.5 =     1.4877 +j    2.0829
------------
165503     1           2.5594 /_  114.5 =    -1.0628 +j    2.3283
165503     2           2.5623 /_   -5.5 =     2.5505 +j  -0.24541
165503     3           2.5596 /_ -125.5 =    -1.4877 +j   -2.0829

ELEMENT = "Line.157168"
165495     1           192.07 /_  -35.1 =     157.11 +j   -110.49
165495     2           170.88 /_ -150.9 =    -149.31 +j    -83.11
165495     3           202.97 /_   83.1 =     24.479 +j    201.49
------------
165504     1           192.07 /_  144.9 =    -157.11 +j    110.49
165504     2           170.88 /_   29.1 =     149.31 +j     83.11
165504     3           202.97 /_  -96.9 =    -24.479 +j   -201.49

ELEMENT = "Line.174945"
181883     1        2.7316E-6 /_   49.0 =  1.7922E-6 +j 2.0615E-6
181883     2        2.7434E-6 /_  -70.6 =  9.0916E-7 +j -2.5884E-6
181883     3        2.7221E-6 /_  169.2 =  -2.6737E-6 +j 5.1104E-7
------------
158676     1       3.7014E-12 /_  -42.5 =  2.7285E-12 +j -2.5011E-12
158676     2       1.3642E-12 /_   90.0 =          0 +j 1.3642E-12
158676     3        3.638E-12 /_  180.0 =  -3.638E-12 +j         0

ELEMENT = "Line.174947"
181889     1           5.1063 /_  -65.5 =     2.1211 +j   -4.6449
181889     2           5.1133 /_  174.5 =    -5.0894 +j   0.49365
181889     3           5.1033 /_   54.4 =     2.9683 +j    4.1512
------------
181890     1           5.1063 /_  114.5 =    -2.1211 +j    4.6449
181890     2           5.1133 /_   -5.5 =     5.0894 +j  -0.49365
181890     3           5.1033 /_ -125.6 =    -2.9683 +j   -4.1512

ELEMENT = "Line.174948"
181891     1           18.333 /_  -65.8 =     7.5195 +j    -16.72
181891     2           19.498 /_  174.2 =    -19.399 +j    1.9586
181891     3           16.132 /_   54.7 =     9.3229 +j    13.165
------------
181892     1           18.333 /_  114.2 =    -7.5195 +j     16.72
181892     2           19.498 /_   -5.8 =     19.399 +j   -1.9586
181892     3           16.132 /_ -125.3 =    -9.3229 +j   -13.165

ELEMENT = "Line.174950"
181884     1           28.585 /_  -65.8 =      11.73 +j   -26.068
181884     2           31.682 /_  174.3 =    -31.523 +j    3.1738
181884     3           26.378 /_   54.5 =     15.326 +j    21.469
------------
181886     1           28.585 /_  114.2 =     -11.73 +j    26.068
181886     2           31.682 /_   -5.7 =     31.523 +j   -3.1738
181886     3           26.378 /_ -125.5 =    -15.326 +j   -21.469

ELEMENT = "Line.174951"
181886     1           5.1063 /_  -65.5 =     2.1211 +j   -4.6449
181886     2           5.1133 /_  174.5 =    -5.0894 +j   0.49365
181886     3           5.1033 /_   54.4 =     2.9683 +j    4.1512
------------
181889     1           5.1063 /_  114.5 =    -2.1211 +j    4.6449
181889     2           5.1133 /_   -5.5 =     5.0894 +j  -0.49365
181889     3           5.1033 /_ -125.6 =    -2.9683 +j   -4.1512

ELEMENT = "Line.174952"
181886     1           23.479 /_  -65.8 =     9.6091 +j   -21.423
181886     2           26.569 /_  174.2 =    -26.434 +j    2.6802
181886     3           21.275 /_   54.5 =     12.358 +j    17.318
------------
181888     1           23.479 /_  114.2 =    -9.6091 +j    21.423
181888     2           26.569 /_   -5.8 =     26.434 +j   -2.6802
181888     3           21.275 /_ -125.5 =    -12.358 +j   -17.318

ELEMENT = "Line.174953"
181888     1           23.479 /_  -65.8 =     9.6091 +j   -21.423
181888     2           26.569 /_  174.2 =    -26.434 +j    2.6802
181888     3           21.275 /_   54.5 =     12.358 +j    17.318
------------
181885     1           23.479 /_  114.2 =    -9.6091 +j    21.423
181885     2           26.569 /_   -5.8 =     26.434 +j   -2.6802
181885     3           21.275 /_ -125.5 =    -12.358 +j   -17.318

ELEMENT = "Line.174954"
181885     1           23.479 /_  -65.8 =     9.6091 +j   -21.423
181885     2           24.652 /_  174.2 =    -24.524 +j    2.5089
181885     3           21.275 /_   54.5 =     12.358 +j    17.318
------------
181887     1           23.479 /_  114.2 =    -9.6091 +j    21.423
181887     2           24.652 /_   -5.8 =     24.524 +j   -2.5089
181887     3           21.275 /_ -125.5 =    -12.358 +j   -17.318

ELEMENT = "Line.174955"
181887     1           18.333 /_  -65.8 =     7.5195 +j    -16.72
181887     2           19.498 /_  174.2 =    -19.399 +j    1.9586
181887     3           16.132 /_   54.7 =     9.3229 +j    13.165
------------
181891     1           18.333 /_  114.2 =    -7.5195 +j     16.72
181891     2           19.498 /_   -5.8 =     19.399 +j   -1.9586
181891     3           16.132 /_ -125.3 =    -9.3229 +j   -13.165

ELEMENT = "Line.174956"
181890     1           5.1063 /_  -65.5 =     2.1211 +j   -4.6449
181890     2           5.1133 /_  174.5 =    -5.0894 +j   0.49365
181890     3           5.1033 /_   54.4 =     2.9683 +j    4.1512
------------
181893     1           5.1063 /_  114.5 =    -2.1211 +j    4.6449
181893     2           5.1133 /_   -5.5 =     5.0894 +j  -0.49365
181893     3           5.1033 /_ -125.6 =    -2.9683 +j   -4.1512

ELEMENT = "Line.174957"
181887     1           5.1466 /_  -66.0 =     2.0895 +j   -4.7033
181887     2           5.1537 /_  173.9 =    -5.1243 +j   0.55023
181887     3           5.1437 /_   53.8 =     3.0347 +j    4.1531
------------
181894     1           5.1466 /_  114.0 =    -2.0895 +j    4.7033
181894     2           5.1537 /_   -6.1 =     5.1243 +j  -0.55023
181894     3           5.1437 /_ -126.2 =    -3.0347 +j   -4.1531

ELEMENT = "Line.174958"
181895     1         0.067496 /_ -118.8 =   -0.03248 +j -0.059167
181895     2         0.067637 /_  121.2 =  -0.035068 +j  0.057836
181895     3         0.067561 /_    1.1 =   0.067548 +j  0.001331
------------
181896     1         0.067496 /_   61.2 =    0.03248 +j  0.059167
181896     2         0.067637 /_  -58.8 =   0.035068 +j -0.057836
181896     3         0.067561 /_ -178.9 =  -0.067548 +j -0.001331

ELEMENT = "Line.174959"
181894     1         0.067496 /_ -118.8 =   -0.03248 +j -0.059167
181894     2         0.067637 /_  121.2 =  -0.035068 +j  0.057836
181894     3         0.067561 /_    1.1 =   0.067548 +j  0.001331
------------
181895     1         0.067496 /_   61.2 =    0.03248 +j  0.059167
181895     2         0.067637 /_  -58.8 =   0.035068 +j -0.057836
181895     3         0.067561 /_ -178.9 =  -0.067548 +j -0.001331

ELEMENT = "Line.174960"
181896     1         0.067496 /_ -118.8 =   -0.03248 +j -0.059167
181896     2         0.067637 /_  121.2 =  -0.035068 +j  0.057836
181896     3         0.067561 /_    1.1 =   0.067548 +j  0.001331
------------
181897     1         0.067496 /_   61.2 =    0.03248 +j  0.059167
181897     2         0.067637 /_  -58.8 =   0.035068 +j -0.057836
181897     3         0.067561 /_ -178.9 =  -0.067548 +j -0.001331

ELEMENT = "Line.174961"
181892     1           18.333 /_  -65.8 =     7.5195 +j    -16.72
------------
181898     1           18.333 /_  114.2 =    -7.5195 +j     16.72

ELEMENT = "Line.174962"
181898     1           14.659 /_  -65.7 =     6.0222 +j   -13.365
------------
181899     1           14.659 /_  114.3 =    -6.0222 +j    13.365

ELEMENT = "Line.174963"
181899     1           12.219 /_  -65.8 =     5.0134 +j   -11.143
------------
181900     1           12.219 /_  114.2 =    -5.0134 +j    11.143

ELEMENT = "Line.174964"
181900     1           7.3291 /_  -65.7 =     3.0131 +j   -6.6811
------------
181901     1           7.3291 /_  114.3 =    -3.0131 +j    6.6811

ELEMENT = "Line.174965"
181901     1           4.8893 /_  -65.8 =     2.0026 +j   -4.4604
------------
181902     1           4.8893 /_  114.2 =    -2.0026 +j    4.4604

ELEMENT = "Line.174966"
181892     3           16.132 /_   54.7 =     9.3229 +j    13.165
------------
181908     3           16.132 /_ -125.3 =    -9.3229 +j   -13.165

ELEMENT = "Line.174967"
181908     3           4.0396 /_   54.5 =     2.3441 +j    3.2898
------------
181903     3           4.0396 /_ -125.5 =    -2.3441 +j   -3.2898

ELEMENT = "Line.174968"
181908     3           4.0397 /_   54.5 =      2.345 +j    3.2894
------------
181904     3           4.0397 /_ -125.5 =     -2.345 +j   -3.2894

ELEMENT = "Line.174969"
181908     3           8.0524 /_   54.9 =     4.6337 +j    6.5855
------------
181905     3           8.0524 /_ -125.1 =    -4.6337 +j   -6.5855

ELEMENT = "Line.174970"
181905     3           5.3682 /_   54.9 =      3.089 +j    4.3905
------------
181909     3           5.3682 /_ -125.1 =     -3.089 +j   -4.3905

ELEMENT = "Line.174971"
181909     3           2.6841 /_   54.9 =     1.5445 +j    2.1952
------------
181907     3           2.6841 /_ -125.1 =    -1.5445 +j   -2.1952

ELEMENT = "Line.174972"
181909     3           2.6841 /_   54.9 =     1.5445 +j    2.1952
------------
181906     3           2.6841 /_ -125.1 =    -1.5445 +j   -2.1952

ELEMENT = "Line.174973"
181892     2           19.498 /_  174.2 =    -19.399 +j    1.9586
------------
181910     2           19.498 /_   -5.8 =     19.399 +j   -1.9586

ELEMENT = "Line.174974"
181910     2           15.605 /_  174.2 =    -15.526 +j     1.574
------------
181911     2           15.605 /_   -5.8 =     15.526 +j    -1.574

ELEMENT = "Line.174975"
181911     2           11.712 /_  174.2 =    -11.652 +j    1.1862
------------
181916     2           11.712 /_   -5.8 =     11.652 +j   -1.1862

ELEMENT = "Line.174976"
181916     2           2.5862 /_  174.7 =    -2.5751 +j   0.24001
------------
181915     2           2.5862 /_   -5.3 =     2.5751 +j  -0.24001

ELEMENT = "Line.174977"
181916     2           9.1257 /_  174.0 =    -9.0766 +j   0.94623
------------
181912     2           9.1257 /_   -6.0 =     9.0766 +j  -0.94623

ELEMENT = "Line.174978"
181912     2           3.9438 /_  173.6 =    -3.9191 +j   0.44105
------------
181913     2           3.9438 /_   -6.4 =     3.9191 +j  -0.44105

ELEMENT = "Line.174979"
181913     2          0.07072 /_  129.7 =  -0.045133 +j  0.054446
------------
181914     2          0.07072 /_  -50.3 =   0.045133 +j -0.054446

ELEMENT = "Line.174980"
181883     1           28.585 /_  114.2 =     -11.73 +j    26.068
181883     2           31.682 /_   -5.7 =     31.523 +j   -3.1738
181883     3            26.42 /_ -125.6 =    -15.383 +j    -21.48
------------
181917     1           28.585 /_  -65.8 =      11.73 +j   -26.068
181917     2           31.682 /_  174.3 =    -31.523 +j    3.1738
181917     3            26.42 /_   54.4 =     15.383 +j     21.48

ELEMENT = "Line.174981"
181917     1        5.0426E-8 /_   48.8 =  3.3237E-8 +j 3.7922E-8
181917     2        5.0836E-8 /_  -70.7 =  1.6764E-8 +j -4.7992E-8
181917     3         5.021E-8 /_  169.4 =  -4.936E-8 +j 9.1968E-9
------------
181920     1       2.6832E-10 /_  102.5 =  -5.8208E-11 +j 2.6193E-10
181920     2       2.3464E-10 /_  -60.3 =  1.1642E-10 +j -2.0373E-10
181920     3       3.2927E-10 /_  135.0 =  -2.3283E-10 +j 2.3283E-10

ELEMENT = "Line.174982"
181917     1           28.585 /_  114.2 =     -11.73 +j    26.068
181917     2           31.682 /_   -5.7 =     31.523 +j   -3.1738
181917     3            26.42 /_ -125.6 =    -15.383 +j    -21.48
------------
181918     1           28.585 /_  -65.8 =      11.73 +j   -26.068
181918     2           31.682 /_  174.3 =    -31.523 +j    3.1738
181918     3            26.42 /_   54.4 =     15.383 +j     21.48

ELEMENT = "Line.174983"
181918     1           104.14 /_  142.8 =    -82.906 +j    63.023
181918     2           109.14 /_   21.3 =     101.71 +j     39.59
181918     3           103.13 /_  -97.1 =    -12.756 +j   -102.34
------------
181919     1           104.14 /_  -37.2 =     82.906 +j   -63.023
181919     2           109.14 /_ -158.7 =    -101.71 +j    -39.59
181919     3           103.13 /_   82.9 =     12.756 +j    102.34

ELEMENT = "Line.174984"
181919     1        2.2969E-7 /_   49.0 =  1.5057E-7 +j 1.7345E-7
181919     2        2.3054E-7 /_  -70.6 =  7.6587E-8 +j -2.1745E-7
181919     3        2.2872E-7 /_  169.2 =  -2.2468E-7 +j 4.2797E-8
------------
152566     1       1.0418E-10 /_ -167.9 =  -1.0186E-10 +j -2.1828E-11
152566     2       2.1904E-11 /_  -48.4 =  1.4552E-11 +j -1.6371E-11
152566     3        7.276E-12 /_  -90.0 =          0 +j -7.276E-12

ELEMENT = "Line.174987"
181918     1           80.198 /_  -27.4 =     71.176 +j   -36.955
181918     2           82.189 /_ -148.6 =    -70.187 +j   -42.764
181918     3           80.904 /_   91.9 =    -2.6269 +j    80.862
------------
181925     1           80.198 /_  152.6 =    -71.176 +j    36.955
181925     2           82.189 /_   31.4 =     70.187 +j    42.764
181925     3           80.904 /_  -88.1 =     2.6269 +j   -80.862

ELEMENT = "Line.174988"
181925     1           48.361 /_   16.8 =       46.3 +j    13.966
181925     2           48.765 /_ -106.1 =    -13.515 +j   -46.855
181925     3           48.366 /_  135.4 =    -34.409 +j     33.99
------------
181926     1           48.361 /_ -163.2 =      -46.3 +j   -13.966
181926     2           48.765 /_   73.9 =     13.515 +j    46.855
181926     3           48.366 /_  -44.6 =     34.409 +j    -33.99

ELEMENT = "Line.174989"
181926     1           7.5886 /_  -66.0 =     3.0919 +j   -6.9302
181926     2           5.1577 /_  173.6 =     -5.126 +j   0.57067
181926     3           5.1487 /_   53.6 =     3.0541 +j    4.1451
------------
181927     1           7.5886 /_  114.0 =    -3.0919 +j    6.9302
181927     2           5.1577 /_   -6.4 =      5.126 +j  -0.57067
181927     3           5.1487 /_ -126.4 =    -3.0541 +j   -4.1451

ELEMENT = "Line.174990"
181925     1           56.672 /_  -64.0 =     24.876 +j   -50.921
181925     2            56.82 /_  175.9 =    -56.672 +j     4.091
181925     3           56.631 /_   55.9 =     31.782 +j    46.872
------------
181928     1           56.672 /_  116.0 =    -24.876 +j    50.921
181928     2            56.82 /_   -4.1 =     56.672 +j    -4.091
181928     3           56.631 /_ -124.1 =    -31.782 +j   -46.872

ELEMENT = "Line.174991"
181919     1         7.481E-8 /_   49.1 =  4.8953E-8 +j 5.6571E-8
181919     2        7.4879E-8 /_  -70.6 =  2.4913E-8 +j -7.0613E-8
181919     3        7.4404E-8 /_  169.3 =  -7.3109E-8 +j 1.3824E-8
------------
181924     1       2.3294E-10 /_  -75.5 =  5.8208E-11 +j -2.2555E-10
181924     2       1.6735E-10 /_  -90.0 =          0 +j -1.6735E-10
181924     3       1.4552E-10 /_  143.1 =  -1.1642E-10 +j 8.7311E-11

ELEMENT = "Line.174994"
181933     3           20.166 /_   54.7 =     11.643 +j    16.466
------------
181934     3           20.166 /_ -125.3 =    -11.643 +j   -16.466

ELEMENT = "Line.174995"
255317     1           104.14 /_  142.8 =    -82.906 +j    63.023
255317     2           109.14 /_   21.3 =     101.71 +j     39.59
255317     3           103.13 /_  -97.1 =    -12.756 +j   -102.34
------------
181929     1           104.14 /_  -37.2 =     82.906 +j   -63.023
181929     2           109.14 /_ -158.7 =    -101.71 +j    -39.59
181929     3           103.13 /_   82.9 =     12.756 +j    102.34

ELEMENT = "Line.174998"
181929     1           119.48 /_  139.0 =    -90.192 +j    78.361
181929     2           124.66 /_   17.8 =     118.66 +j    38.184
181929     3           118.42 /_ -100.9 =    -22.424 +j   -116.27
------------
181936     1           119.48 /_  -41.0 =     90.192 +j   -78.361
181936     2           124.66 /_ -162.2 =    -118.66 +j   -38.184
181936     3           118.42 /_   79.1 =     22.424 +j    116.27

ELEMENT = "Line.174999"
181936     1           119.93 /_  138.9 =    -90.393 +j    78.814
181936     2           124.66 /_   17.8 =     118.66 +j    38.184
181936     3           118.42 /_ -100.9 =    -22.424 +j   -116.27
------------
181932     1           119.93 /_  -41.1 =     90.393 +j   -78.814
181932     2           124.66 /_ -162.2 =    -118.66 +j   -38.184
181932     3           118.42 /_   79.1 =     22.424 +j    116.27

ELEMENT = "Line.175000"
181932     3           20.166 /_   54.7 =     11.643 +j    16.466
------------
181933     3           20.166 /_ -125.3 =    -11.643 +j   -16.466

ELEMENT = "Line.175001"
181939     1          0.06757 /_   61.3 =   0.032494 +j  0.059244
181939     2         0.067718 /_  -58.8 =   0.035128 +j -0.057894
181939     3         0.067635 /_ -178.9 =  -0.067622 +j -0.0013498
------------
181940     1          0.06757 /_ -118.7 =  -0.032494 +j -0.059244
181940     2         0.067718 /_  121.2 =  -0.035128 +j  0.057894
181940     3         0.067635 /_    1.1 =   0.067622 +j 0.0013498

ELEMENT = "Line.175002"
181927     1           7.5886 /_  -66.0 =     3.0919 +j   -6.9302
181927     2           5.1577 /_  173.6 =     -5.126 +j   0.57067
181927     3           5.1487 /_   53.6 =     3.0541 +j    4.1451
------------
181937     1           7.5886 /_  114.0 =    -3.0919 +j    6.9302
181937     2           5.1577 /_   -6.4 =      5.126 +j  -0.57067
181937     3           5.1487 /_ -126.4 =    -3.0541 +j   -4.1451

ELEMENT = "Line.175003"
181937     1           5.1508 /_  -66.3 =     2.0719 +j   -4.7157
181937     2           5.1577 /_  173.6 =     -5.126 +j   0.57067
181937     3           5.1487 /_   53.6 =     3.0541 +j    4.1451
------------
181938     1           5.1508 /_  113.7 =    -2.0719 +j    4.7157
181938     2           5.1577 /_   -6.4 =      5.126 +j  -0.57067
181938     3           5.1487 /_ -126.4 =    -3.0541 +j   -4.1451

ELEMENT = "Line.175004"
181938     1          0.06757 /_ -118.7 =  -0.032494 +j -0.059244
181938     2         0.067718 /_  121.2 =  -0.035128 +j  0.057894
181938     3         0.067635 /_    1.1 =   0.067622 +j 0.0013498
------------
181940     1          0.06757 /_   61.3 =   0.032494 +j  0.059244
181940     2         0.067718 /_  -58.8 =   0.035128 +j -0.057894
181940     3         0.067635 /_ -178.9 =  -0.067622 +j -0.0013498

ELEMENT = "Line.175005"
181939     1          0.06757 /_ -118.7 =  -0.032494 +j -0.059244
181939     2         0.067718 /_  121.2 =  -0.035128 +j  0.057894
181939     3         0.067635 /_    1.1 =   0.067622 +j 0.0013498
------------
181941     1          0.06757 /_   61.3 =   0.032494 +j  0.059244
181941     2         0.067718 /_  -58.8 =   0.035128 +j -0.057894
181941     3         0.067635 /_ -178.9 =  -0.067622 +j -0.0013498

ELEMENT = "Line.175006"
181943     3           14.809 /_   54.7 =     8.5649 +j    12.081
------------
181944     3           14.809 /_ -125.3 =    -8.5649 +j   -12.081

ELEMENT = "Line.175007"
181932     1           130.01 /_  136.9 =    -94.905 +j    88.854
181932     2           124.66 /_   17.8 =     118.66 +j    38.184
181932     3           137.04 /_ -104.4 =    -34.067 +j   -132.74
------------
181945     1           130.01 /_  -43.1 =     94.905 +j   -88.854
181945     2           124.66 /_ -162.2 =    -118.66 +j   -38.184
181945     3           137.04 /_   75.6 =     34.067 +j    132.74

ELEMENT = "Line.175008"
181945     1           138.46 /_  159.4 =    -129.57 +j    48.812
181945     2           134.11 /_   41.2 =     100.91 +j     88.33
181945     3           143.64 /_  -82.9 =     17.782 +j   -142.53
------------
181942     1           138.46 /_  -20.6 =     129.57 +j   -48.812
181942     2           134.11 /_ -138.8 =    -100.91 +j    -88.33
181942     3           143.64 /_   97.1 =    -17.782 +j    142.53

ELEMENT = "Line.175009"
181942     3           14.809 /_   54.7 =     8.5649 +j    12.081
------------
181943     3           14.809 /_ -125.3 =    -8.5649 +j   -12.081

ELEMENT = "Line.175010"
236964     1           14.682 /_  -65.8 =     6.0187 +j   -13.392
------------
181946     1           14.682 /_  114.2 =    -6.0187 +j    13.392

ELEMENT = "Line.175011"
181946     1           2.4408 /_  -65.5 =     1.0121 +j   -2.2211
------------
181953     1           2.4408 /_  114.5 =    -1.0121 +j    2.2211

ELEMENT = "Line.175013"
181946     1           12.241 /_  -65.9 =     5.0065 +j   -11.171
------------
181947     1           12.241 /_  114.1 =    -5.0065 +j    11.171

ELEMENT = "Line.175014"
181947     1            3.675 /_  -65.9 =     1.5004 +j   -3.3547
------------
181950     1            3.675 /_  114.1 =    -1.5004 +j    3.3547

ELEMENT = "Line.175015"
181947     1           8.5663 /_  -65.8 =     3.5061 +j    -7.816
------------
181948     1           8.5663 /_  114.2 =    -3.5061 +j     7.816

ELEMENT = "Line.175016"
181948     1            3.675 /_  -65.9 =     1.5005 +j   -3.3547
------------
181951     1            3.675 /_  114.1 =    -1.5005 +j    3.3547

ELEMENT = "Line.175017"
181948     1           4.8914 /_  -65.8 =     2.0056 +j   -4.4613
------------
181952     1           4.8914 /_  114.2 =    -2.0056 +j    4.4613

ELEMENT = "Line.175018"
181954     1           2.4408 /_  114.5 =    -1.0106 +j    2.2218
------------
181949     1           2.4408 /_  -65.5 =     1.0106 +j   -2.2218

ELEMENT = "Line.175019"
181949     1           3.6751 /_  -65.9 =     1.4981 +j   -3.3559
------------
181955     1           3.6751 /_  114.1 =    -1.4981 +j    3.3559

ELEMENT = "Line.175020"
181949     1           6.1159 /_  114.2 =    -2.5087 +j    5.5777
------------
181956     1           6.1159 /_  -65.8 =     2.5087 +j   -5.5777

ELEMENT = "Line.175021"
181956     1           11.007 /_  114.2 =    -4.5115 +j     10.04
------------
236966     1           11.007 /_  -65.8 =     4.5115 +j    -10.04

ELEMENT = "Line.175022"
181944     3           14.809 /_   54.7 =     8.5649 +j    12.081
------------
181957     3           14.809 /_ -125.3 =    -8.5649 +j   -12.081

ELEMENT = "Line.175023"
181934     3           20.166 /_   54.7 =     11.643 +j    16.466
------------
181958     3           20.166 /_ -125.3 =    -11.643 +j   -16.466

ELEMENT = "Line.175024"
181958     3           14.787 /_   54.8 =     8.5323 +j    12.078
------------
181967     3           14.787 /_ -125.2 =    -8.5323 +j   -12.078

ELEMENT = "Line.175025"
181967     3           10.747 /_   54.8 =     6.1912 +j    8.7847
------------
181966     3           10.747 /_ -125.2 =    -6.1912 +j   -8.7847

ELEMENT = "Line.175026"
181966     3           5.3684 /_   55.0 =     3.0806 +j    4.3966
------------
181965     3           5.3684 /_ -125.0 =    -3.0806 +j   -4.3966

ELEMENT = "Line.175027"
181965     3           2.6841 /_   55.0 =     1.5395 +j    2.1987
------------
181959     3           2.6841 /_ -125.0 =    -1.5395 +j   -2.1987

ELEMENT = "Line.175029"
181963     3           13.459 /_ -125.3 =    -7.7854 +j   -10.979
------------
181957     3           13.459 /_   54.7 =     7.7854 +j    10.979

ELEMENT = "Line.175030"
181963     3           13.459 /_   54.7 =     7.7854 +j    10.979
------------
181964     3           13.459 /_ -125.3 =    -7.7854 +j   -10.979

ELEMENT = "Line.175031"
181964     3           5.3786 /_   54.7 =     3.1066 +j    4.3907
------------
181960     3           5.3786 /_ -125.3 =    -3.1066 +j   -4.3907

ELEMENT = "Line.175032"
181964     3           8.0809 /_   54.6 =     4.6788 +j    6.5886
------------
181961     3           8.0809 /_ -125.4 =    -4.6788 +j   -6.5886

ELEMENT = "Line.175033"
181961     3           4.0404 /_   54.6 =     2.3392 +j    3.2944
------------
181962     3           4.0404 /_ -125.4 =    -2.3392 +j   -3.2944

ELEMENT = "Line.175034"
181969     1           19.865 /_  113.2 =    -7.8398 +j    18.253
181969     2           18.753 /_   -6.9 =     18.616 +j    -2.264
181969     3           17.411 /_ -127.1 =    -10.495 +j   -13.893
------------
181970     1           19.865 /_  -66.8 =     7.8398 +j   -18.253
181970     2           18.753 /_  173.1 =    -18.616 +j     2.264
181970     3           17.411 /_   52.9 =     10.495 +j    13.893

ELEMENT = "Line.175035"
181971     1          0.67683 /_ -118.2 =   -0.31997 +j  -0.59642
181971     2          0.67831 /_  121.8 =   -0.35723 +j   0.57662
181971     3          0.67749 /_    1.7 =     0.6772 +j  0.019801
------------
181972     1          0.67683 /_   61.8 =    0.31997 +j   0.59642
181972     2          0.67831 /_  -58.2 =    0.35723 +j  -0.57662
181972     3          0.67749 /_ -178.3 =    -0.6772 +j -0.019801

ELEMENT = "Line.175036"
181973     1            17.01 /_  -65.2 =     7.1458 +j   -15.436
181973     2           17.036 /_  174.7 =    -16.964 +j    1.5633
181973     3           16.996 /_   54.7 =     9.8181 +j    13.873
------------
181974     1            17.01 /_  114.8 =    -7.1458 +j    15.436
181974     2           17.036 /_   -5.3 =     16.964 +j   -1.5633
181974     3           16.996 /_ -125.3 =    -9.8181 +j   -13.873

ELEMENT = "Line.175037"
181942     1           149.17 /_  155.4 =    -135.59 +j    62.204
181942     2           134.11 /_   41.2 =     100.91 +j     88.33
181942     3           154.89 /_  -86.6 =     9.2173 +j   -154.61
------------
181968     1           149.17 /_  -24.6 =     135.59 +j   -62.204
181968     2           134.11 /_ -138.8 =    -100.91 +j    -88.33
181968     3           154.89 /_   93.4 =    -9.2173 +j    154.61

ELEMENT = "Line.175038"
181968     1           19.865 /_  -66.8 =     7.8398 +j   -18.253
181968     2           18.753 /_  173.1 =    -18.616 +j     2.264
181968     3           17.411 /_   52.9 =     10.495 +j    13.893
------------
181970     1           19.865 /_  113.2 =    -7.8398 +j    18.253
181970     2           18.753 /_   -6.9 =     18.616 +j    -2.264
181970     3           17.411 /_ -127.1 =    -10.495 +j   -13.893

ELEMENT = "Line.175040"
181979     1          0.67683 /_ -118.2 =   -0.31997 +j  -0.59642
181979     2          0.67831 /_  121.8 =   -0.35723 +j   0.57662
181979     3          0.67749 /_    1.7 =     0.6772 +j  0.019801
------------
181971     1          0.67683 /_   61.8 =    0.31997 +j   0.59642
181971     2          0.67831 /_  -58.2 =    0.35723 +j  -0.57662
181971     3          0.67749 /_ -178.3 =    -0.6772 +j -0.019801

ELEMENT = "Line.175041"
181979     1            19.45 /_  -65.2 =     8.1597 +j   -17.656
181979     2           18.336 /_  174.7 =    -18.259 +j    1.6874
181979     3           16.996 /_   54.7 =     9.8181 +j    13.873
------------
181976     1            19.45 /_  114.8 =    -8.1597 +j    17.656
181976     2           18.336 /_   -5.3 =     18.259 +j   -1.6874
181976     3           16.996 /_ -125.3 =    -9.8181 +j   -13.873

ELEMENT = "Line.175042"
181976     1            17.01 /_  -65.2 =     7.1458 +j   -15.436
181976     2           18.336 /_  174.7 =    -18.259 +j    1.6874
181976     3           16.996 /_   54.7 =     9.8181 +j    13.873
------------
181977     1            17.01 /_  114.8 =    -7.1458 +j    15.436
181977     2           18.336 /_   -5.3 =     18.259 +j   -1.6874
181977     3           16.996 /_ -125.3 =    -9.8181 +j   -13.873

ELEMENT = "Line.175043"
181977     1        2.2242E-8 /_   49.1 =  1.4559E-8 +j 1.6815E-8
181977     2           1.3007 /_  174.5 =    -1.2948 +j    0.1241
181977     3        2.2184E-8 /_  169.7 =  -2.1828E-8 +j 3.9581E-9
------------
181978     1       8.2959E-11 /_  127.9 =  -5.0932E-11 +j 6.5484E-11
181978     2           1.3007 /_   -5.5 =     1.2948 +j   -0.1241
181978     3       1.3016E-10 /_   63.4 =  5.8208E-11 +j 1.1642E-10

ELEMENT = "Line.175044"
181977     1            17.01 /_  -65.2 =     7.1458 +j   -15.436
181977     2           17.036 /_  174.7 =    -16.964 +j    1.5633
181977     3           16.996 /_   54.7 =     9.8181 +j    13.873
------------
181973     1            17.01 /_  114.8 =    -7.1458 +j    15.436
181973     2           17.036 /_   -5.3 =     16.964 +j   -1.5633
181973     3           16.996 /_ -125.3 =    -9.8181 +j   -13.873

ELEMENT = "Line.175045"
181978     2           1.3007 /_  174.5 =    -1.2948 +j    0.1241
------------
181975     2           1.3007 /_   -5.5 =     1.2948 +j   -0.1241

ELEMENT = "Line.175046"
181975     2        8.6418E-8 /_  -70.5 =  2.8856E-8 +j -8.1458E-8
------------
181982     2        1.819E-11 /_  -36.9 =  1.4552E-11 +j -1.0914E-11

ELEMENT = "Line.175047"
181974     1            17.01 /_  -65.2 =     7.1458 +j   -15.436
181974     2           17.036 /_  174.7 =    -16.964 +j    1.5633
181974     3           16.996 /_   54.7 =     9.8181 +j    13.873
------------
181980     1            17.01 /_  114.8 =    -7.1458 +j    15.436
181980     2           17.036 /_   -5.3 =     16.964 +j   -1.5633
181980     3           16.996 /_ -125.3 =    -9.8181 +j   -13.873

ELEMENT = "Line.175048"
181972     1          0.67683 /_ -118.2 =   -0.31997 +j  -0.59642
181972     2          0.67831 /_  121.8 =   -0.35723 +j   0.57662
181972     3          0.67749 /_    1.7 =     0.6772 +j  0.019801
------------
181981     1          0.67683 /_   61.8 =    0.31997 +j   0.59642
181981     2          0.67831 /_  -58.2 =    0.35723 +j  -0.57662
181981     3          0.67749 /_ -178.3 =    -0.6772 +j -0.019801

ELEMENT = "Line.175049"
181968     1           164.45 /_  150.7 =    -143.43 +j    80.456
181968     2           147.29 /_   35.8 =     119.53 +j    86.066
181968     3           168.51 /_  -90.4 =    -1.2781 +j   -168.51
------------
165504     1           164.45 /_  -29.3 =     143.43 +j   -80.456
165504     2           147.29 /_ -144.2 =    -119.53 +j   -86.066
165504     3           168.51 /_   89.6 =     1.2781 +j    168.51

ELEMENT = "Line.175051"
165504     1           33.003 /_  -65.5 =      13.68 +j   -30.034
165504     2           29.922 /_  174.3 =    -29.776 +j    2.9559
165504     3           40.329 /_   54.9 =     23.201 +j    32.987
------------
261881     1           33.003 /_  114.5 =     -13.68 +j    30.034
261881     2           29.922 /_   -5.7 =     29.776 +j   -2.9559
261881     3           40.329 /_ -125.1 =    -23.201 +j   -32.987

ELEMENT = "Line.175052"
181987     1           55.917 /_  -63.9 =      24.58 +j   -50.225
181987     2           56.038 /_  175.9 =    -55.893 +j    4.0157
181987     3            55.82 /_   55.9 =     31.313 +j     46.21
------------
181988     1           55.917 /_  116.1 =     -24.58 +j    50.225
181988     2           56.038 /_   -4.1 =     55.893 +j   -4.0157
181988     3            55.82 /_ -124.1 =    -31.313 +j    -46.21

ELEMENT = "Line.175053"
181928     1           56.672 /_  -64.0 =     24.876 +j   -50.921
181928     2            56.82 /_  175.9 =    -56.672 +j     4.091
181928     3           56.631 /_   55.9 =     31.782 +j    46.872
------------
181985     1           56.672 /_  116.0 =    -24.876 +j    50.921
181985     2            56.82 /_   -4.1 =     56.672 +j    -4.091
181985     3           56.631 /_ -124.1 =    -31.782 +j   -46.872

ELEMENT = "Line.175054"
181985     1           56.656 /_  -63.9 =     24.883 +j   -50.899
181985     2            56.82 /_  175.9 =    -56.672 +j     4.091
181985     3           56.631 /_   55.9 =     31.782 +j    46.872
------------
181986     1           56.656 /_  116.1 =    -24.883 +j    50.899
181986     2            56.82 /_   -4.1 =     56.672 +j    -4.091
181986     3           56.631 /_ -124.1 =    -31.782 +j   -46.872

ELEMENT = "Line.175055"
181986     1           55.917 /_  -63.9 =      24.58 +j   -50.225
181986     2           56.038 /_  175.9 =    -55.893 +j    4.0157
181986     3            55.82 /_   55.9 =     31.313 +j     46.21
------------
181987     1           55.917 /_  116.1 =     -24.58 +j    50.225
181987     2           56.038 /_   -4.1 =     55.893 +j   -4.0157
181987     3            55.82 /_ -124.1 =    -31.313 +j    -46.21

ELEMENT = "Line.175056"
181988     1           55.917 /_  -63.9 =      24.58 +j   -50.225
181988     2           56.038 /_  175.9 =    -55.893 +j    4.0157
181988     3            55.82 /_   55.9 =     31.313 +j     46.21
------------
181989     1           55.917 /_  116.1 =     -24.58 +j    50.225
181989     2           56.038 /_   -4.1 =     55.893 +j   -4.0157
181989     3            55.82 /_ -124.1 =    -31.313 +j    -46.21

ELEMENT = "Line.175057"
181989     1           50.814 /_  -63.8 =     22.454 +j   -45.584
181989     2           50.927 /_  176.0 =    -50.804 +j    3.5276
181989     3           50.719 /_   56.0 =      28.35 +j    42.056
------------
181992     1           50.814 /_  116.2 =    -22.454 +j    45.584
181992     2           50.927 /_   -4.0 =     50.804 +j   -3.5276
181992     3           50.719 /_ -124.0 =     -28.35 +j   -42.056

ELEMENT = "Line.175058"
181992     1           16.976 /_  -64.6 =     7.2899 +j   -15.331
181992     2           17.007 /_  175.3 =    -16.949 +j    1.3994
181992     3           16.952 /_   55.3 =     9.6592 +j    13.931
------------
181990     1           16.976 /_  115.4 =    -7.2899 +j    15.331
181990     2           17.007 /_   -4.7 =     16.949 +j   -1.3994
181990     3           16.952 /_ -124.7 =    -9.6592 +j   -13.931

ELEMENT = "Line.175059"
181992     1           33.841 /_  -63.4 =     15.164 +j   -30.253
181992     2           33.922 /_  176.4 =    -33.855 +j    2.1282
181992     3           33.769 /_   56.4 =     18.691 +j    28.125
------------
181991     1           33.841 /_  116.6 =    -15.164 +j    30.253
181991     2           33.922 /_   -3.6 =     33.855 +j   -2.1282
181991     3           33.769 /_ -123.6 =    -18.691 +j   -28.125

ELEMENT = "Line.175060"
181926     1           47.996 /_   25.8 =     43.208 +j    20.896
181926     2           48.162 /_ -100.0 =    -8.3887 +j   -47.426
181926     3           47.898 /_  141.5 =    -37.463 +j    29.845
------------
181993     1           47.996 /_ -154.2 =    -43.208 +j   -20.896
181993     2           48.162 /_   80.0 =     8.3887 +j    47.426
181993     3           47.898 /_  -38.5 =     37.463 +j   -29.845

ELEMENT = "Line.175061"
181993     1           20.861 /_  -66.0 =     8.4698 +j   -19.064
181993     2           26.163 /_  174.0 =    -26.019 +j    2.7422
181993     3           24.568 /_   54.3 =     14.354 +j    19.939
------------
181994     1           20.861 /_  114.0 =    -8.4698 +j    19.064
181994     2           26.163 /_   -6.0 =     26.019 +j   -2.7422
181994     3           24.568 /_ -125.7 =    -14.354 +j   -19.939

ELEMENT = "Line.175062"
181994     1           20.861 /_  -66.0 =     8.4698 +j   -19.064
181994     2           26.146 /_  174.0 =    -26.003 +j    2.7252
181994     3           24.568 /_   54.3 =     14.354 +j    19.939
------------
181995     1           20.861 /_  114.0 =    -8.4698 +j    19.064
181995     2           26.146 /_   -6.0 =     26.003 +j   -2.7252
181995     3           24.568 /_ -125.7 =    -14.354 +j   -19.939

ELEMENT = "Line.175063"
181995     1           20.844 /_  -66.0 =     8.4769 +j   -19.042
181995     2           26.146 /_  174.0 =    -26.003 +j    2.7252
181995     3           24.568 /_   54.3 =     14.354 +j    19.939
------------
181996     1           20.844 /_  114.0 =    -8.4769 +j    19.042
181996     2           26.146 /_   -6.0 =     26.003 +j   -2.7252
181996     3           24.568 /_ -125.7 =    -14.354 +j   -19.939

ELEMENT = "Line.175064"
181996     1           20.844 /_  -66.0 =     8.4769 +j   -19.042
181996     2           26.146 /_  174.0 =    -26.003 +j    2.7252
181996     3           24.568 /_   54.3 =     14.354 +j    19.939
------------
181997     1           20.844 /_  114.0 =    -8.4769 +j    19.042
181997     2           26.146 /_   -6.0 =     26.003 +j   -2.7252
181997     3           24.568 /_ -125.7 =    -14.354 +j   -19.939

ELEMENT = "Line.175065"
181998     1        1.7824E-7 /_ -131.0 =  -1.1703E-7 +j -1.3445E-7
181998     2        1.7863E-7 /_  109.3 =  -5.9052E-8 +j 1.6859E-7
181998     3        1.7779E-7 /_  -10.8 =  1.7462E-7 +j -3.3411E-8
------------
181999     1        2.5214E-7 /_   49.0 =  1.6551E-7 +j 1.9021E-7
181999     2        2.5293E-7 /_  -70.7 =  8.3732E-8 +j -2.3867E-7
181999     3        2.5129E-7 /_  169.2 =  -2.468E-7 +j 4.7265E-8

ELEMENT = "Line.175066"
182000     1         0.022999 /_   72.0 =  0.0071016 +j  0.021875
182000     2         0.023092 /_  -47.6 =   0.015562 +j -0.017061
182000     3         0.022913 /_ -167.8 =  -0.022397 +j -0.0048345
------------
182001     1         0.022999 /_ -108.0 =  -0.0071016 +j -0.021875
182001     2         0.023092 /_  132.4 =  -0.015562 +j  0.017061
182001     3         0.022913 /_   12.2 =   0.022397 +j 0.0048346

ELEMENT = "Line.175067"
181997     1         0.022999 /_ -108.0 =  -0.0071016 +j -0.021875
181997     2         0.023092 /_  132.4 =  -0.015562 +j  0.017061
181997     3         0.022913 /_   12.2 =   0.022397 +j 0.0048346
------------
182001     1         0.022999 /_   72.0 =  0.0071016 +j  0.021875
182001     2         0.023092 /_  -47.6 =   0.015562 +j -0.017061
182001     3         0.022913 /_ -167.8 =  -0.022397 +j -0.0048346

ELEMENT = "Line.175068"
182000     1         0.022999 /_ -108.0 =  -0.0071016 +j -0.021875
182000     2         0.023092 /_  132.4 =  -0.015562 +j  0.017061
182000     3         0.022913 /_   12.2 =   0.022397 +j 0.0048345
------------
182002     1         0.022999 /_   72.0 =  0.0071017 +j  0.021875
182002     2         0.023092 /_  -47.6 =   0.015562 +j -0.017061
182002     3         0.022913 /_ -167.8 =  -0.022397 +j -0.0048345

ELEMENT = "Line.175069"
181998     1        1.7842E-7 /_   49.0 =   1.171E-7 +j 1.3461E-7
181998     2        1.7913E-7 /_  -70.7 =  5.9343E-8 +j -1.6901E-7
181998     3        1.7774E-7 /_  169.1 =  -1.7456E-7 +j 3.3469E-8
------------
182003     1       5.6827E-11 /_ -140.2 =  -4.3656E-11 +j -3.638E-11
182003     2       9.8964E-11 /_  107.1 =  -2.9104E-11 +j 9.4587E-11
182003     3       5.9999E-11 /_  -14.0 =  5.8208E-11 +j -1.4552E-11

ELEMENT = "Line.175070"
181996     1        2.9215E-7 /_   49.0 =  1.9168E-7 +j 2.2048E-7
181996     2        2.9277E-7 /_  -70.7 =  9.6916E-8 +j -2.7627E-7
181996     3        2.9036E-7 /_  169.2 =  -2.8522E-7 +j 5.4424E-8
------------
181999     1        2.5237E-7 /_ -131.0 =  -1.656E-7 +j -1.9044E-7
181999     2        2.5309E-7 /_  109.4 =  -8.3877E-8 +j 2.3878E-7
181999     3        2.5054E-7 /_  -10.8 =   2.461E-7 +j -4.6974E-8

ELEMENT = "Line.175071"
181997     1           20.827 /_  -66.0 =      8.484 +j    -19.02
181997     2           26.128 /_  174.1 =    -25.988 +j    2.7081
181997     3           24.551 /_   54.3 =     14.331 +j    19.934
------------
182004     1           20.827 /_  114.0 =     -8.484 +j     19.02
182004     2           26.128 /_   -5.9 =     25.988 +j   -2.7081
182004     3           24.551 /_ -125.7 =    -14.331 +j   -19.934

ELEMENT = "Line.175072"
182005     1           3.7836 /_  -65.7 =     1.5558 +j   -3.4489
182005     2           3.8922 /_  173.9 =    -3.8698 +j   0.41691
182005     3           3.9043 /_   54.4 =     2.2731 +j    3.1744
------------
182006     1           3.7836 /_  114.3 =    -1.5558 +j    3.4489
182006     2           3.8922 /_   -6.1 =     3.8698 +j  -0.41691
182006     3           3.9043 /_ -125.6 =    -2.2731 +j   -3.1744

ELEMENT = "Line.175074"
182004     1           3.7836 /_  -65.7 =     1.5558 +j   -3.4489
182004     2           3.8922 /_  173.9 =    -3.8698 +j   0.41691
182004     3           3.9043 /_   54.4 =     2.2731 +j    3.1744
------------
182005     1           3.7836 /_  114.3 =    -1.5558 +j    3.4489
182005     2           3.8922 /_   -6.1 =     3.8698 +j  -0.41691
182005     3           3.9043 /_ -125.6 =    -2.2731 +j   -3.1744

ELEMENT = "Line.175075"
182006     1           3.7836 /_  -65.7 =     1.5558 +j   -3.4489
182006     2           3.8922 /_  173.9 =    -3.8698 +j   0.41691
182006     3           3.9043 /_   54.4 =     2.2731 +j    3.1744
------------
210023     1           3.7836 /_  114.3 =    -1.5558 +j    3.4489
210023     2           3.8922 /_   -6.1 =     3.8698 +j  -0.41691
210023     3           3.9043 /_ -125.6 =    -2.2731 +j   -3.1744

ELEMENT = "Line.175078"
182012     1         8.631E-8 /_   50.0 =  5.5472E-8 +j 6.6124E-8
182012     2        8.6658E-8 /_  -69.2 =  3.0734E-8 +j -8.1025E-8
182012     3        8.4386E-8 /_  169.2 =  -8.2888E-8 +j 1.5832E-8
------------
182013     1        7.6952E-8 /_ -129.4 =  -4.8803E-8 +j -5.9497E-8
182013     2        7.6556E-8 /_  110.5 =  -2.687E-8 +j 7.1685E-8
...